<connections>
	<connection from="1i" to="4o" fromLane="1" toLane="1"/>
	<connection from="1i" to="4o" fromLane="1" toLane="0"/>
	<connection from="1i" to="2o" fromLane="0" toLane="1"/>
	<connection from="1i" to="2o" fromLane="0" toLane="0"/>
	<connection from="2i" to="1o"/>
	<connection from="4i" to="3o"/>
	<connection from="3i" to="4o"/>
</connections>
