<edges>
	<edge id="1i" from="1" to="0" numLanes="2"/>
	<edge id="1o" from="0" to="1" numLanes="2"/>

	<edge id="2i" from="2" to="0" numLanes="2"/>
	<edge id="2o" from="0" to="2" numLanes="2"/>

	<edge id="3i" from="3" to="0" numLanes="2"/>
	<edge id="3o" from="0" to="3" numLanes="2"/>

	<edge id="4i" from="4" to="0" numLanes="2"/>
	<edge id="4o" from="0" to="4" numLanes="2"/>
</edges>
