<configuration>
        <input>
                <net-file value="intersection.net.xml"/>
                <route-files value="intersection.rou.xml"/>
                <gui-settings-file value="inter.settings.xml"/>
        </input>
        <time>
                <begin value="0"/>
                <end value="1000"/>
        </time>
</configuration>
